Circuit: * F:\Cursos\Electronics\SpiceSimulations\OpAmp\DuffingHolmesOscilator.asc

Direct Newton iteration for .op point succeeded.

Date: Tue Oct 16 16:05:36 2018
Total elapsed time: 14.063 seconds.

tnom = 27
temp = 27
method = modified trap
totiter = 80107
traniter = 80084
tranpoints = 40018
accept = 40018
rejected = 0
matrix size = 19
fillins = 14
solver = Normal
Matrix Compiler1:      70 opcodes  0.3/[0.1]/0.6
Matrix Compiler2: off  [0.2]/0.2/0.2


