Circuit: * F:\Cursos\Electronics\SpiceSimulations\OpAmp\Integrador.asc

Direct Newton iteration for .op point succeeded.

Date: Thu Oct 25 11:53:30 2018
Total elapsed time: 0.619 seconds.

tnom = 27
temp = 27
method = modified trap
totiter = 40061
traniter = 40048
tranpoints = 20025
accept = 20023
rejected = 2
matrix size = 31
fillins = 45
solver = Normal
Matrix Compiler1: 3.87 KB object code size  0.6/0.4/[0.4]
Matrix Compiler2: 3.26 KB object code size  0.3/0.5/[0.3]


