Circuit: * F:\Cursos\Electronics\SpiceSimulations\OpAmp\InvertingAmp.asc

Direct Newton iteration for .op point succeeded.

Date: Tue Oct 23 12:52:11 2018
Total elapsed time: 0.249 seconds.

tnom = 27
temp = 27
method = modified trap
totiter = 20066
traniter = 20052
tranpoints = 10027
accept = 10027
rejected = 0
matrix size = 31
fillins = 38
solver = Normal
Matrix Compiler1: 3.15 KB object code size  0.6/0.3/[0.2]
Matrix Compiler2: 3.15 KB object code size  0.2/0.3/[0.2]


