Circuit: * F:\Cursos\Electronics\SpiceSimulations\OpAmp\noinvertingAmp.asc

Direct Newton iteration for .op point succeeded.

Date: Fri Oct 05 11:53:43 2018
Total elapsed time: 0.514 seconds.

tnom = 27
temp = 27
method = modified trap
totiter = 20057
traniter = 20044
tranpoints = 10023
accept = 10021
rejected = 2
matrix size = 11
fillins = 1
solver = Normal
Matrix Compiler1: 552 bytes object code size  0.1/0.1/[0.1]
Matrix Compiler2: off  [0.1]/0.2/0.1


