Circuit: * F:\Cursos\Electronics\SpiceSimulations\OpAmp\noinvertingAmp.asc

Direct Newton iteration for .op point succeeded.

Date: Mon Oct 22 18:02:51 2018
Total elapsed time: 0.040 seconds.

tnom = 27
temp = 27
method = trap
totiter = 13
traniter = 0
tranpoints = 0
accept = 0
rejected = 0
matrix size = 30
fillins = 42
solver = Normal
Matrix Compiler1:     196 opcodes
Matrix Compiler2: 3.09 KB object code size

