Circuit: * F:\Cursos\Electronics\SpiceSimulations\OpAmp\noinvertingAmp.asc

Direct Newton iteration for .op point succeeded.

Date: Tue Oct 23 15:07:32 2018
Total elapsed time: 1.582 seconds.

tnom = 27
temp = 27
method = modified trap
totiter = 200155
traniter = 200142
tranpoints = 100064
accept = 100055
rejected = 9
matrix size = 30
fillins = 39
solver = Normal
Matrix Compiler1: 3.23 KB object code size  0.7/0.3/[0.2]
Matrix Compiler2: 3.11 KB object code size  0.3/0.4/[0.3]


