Circuit: * F:\Cursos\Electronics\SpiceSimulations\OpAmp\PID.asc

Direct Newton iteration for .op point succeeded.

Date: Tue Oct 30 15:20:31 2018
Total elapsed time: 0.356 seconds.

tnom = 27
temp = 27
method = modified trap
totiter = 7883
traniter = 7856
tranpoints = 3828
accept = 3660
rejected = 168
matrix size = 61
fillins = 69
solver = Normal
Thread vector: 25.1/9.3[4] 6.4/5.1[4] 3.1/2.2[3] 0.2/2.1[1]  2592/500
Matrix Compiler1: 5.83 KB object code size  1.3/0.5/[0.3]
Matrix Compiler2: 7.10 KB object code size  0.6/0.7/[0.3]


