Circuit: * F:\Cursos\Electronics\SpiceSimulations\OpAmp\VirtualGround.asc

Direct Newton iteration for .op point succeeded.

Date: Fri Oct 19 09:40:37 2018
Total elapsed time: 0.227 seconds.

tnom = 27
temp = 27
method = modified trap
totiter = 20048
traniter = 20034
tranpoints = 10018
accept = 10018
rejected = 0
matrix size = 7
fillins = 2
solver = Normal
Matrix Compiler1:      25 opcodes  0.1/[0.1]/0.1
Matrix Compiler2: 661 bytes object code size  0.1/0.1/[0.1]


